18
	Energy:      31.1328358
C         -6.90801        2.26189        0.00000
C         -5.64047        2.84658        0.00000
C         -4.48299        2.05122        0.00000
C         -4.61184        0.64297        0.00000
C         -5.89445        0.07086        0.00000
C         -7.03483        0.87587        0.00000
C         -3.20038        2.62332        0.00000
C         -2.05999        1.81831        0.00000
C         -2.18681        0.43229        0.00000
C         -3.45435       -0.15240        0.00000
H         -7.79516        2.88967       -0.00000
H         -5.56153        3.93128        0.00000
H         -6.01366       -1.01015        0.00000
H         -8.02117        0.41952        0.00000
H         -3.08116        3.70433        0.00000
H         -1.07365        2.27466        0.00000
H         -1.29967       -0.19549        0.00000
H         -3.53329       -1.23710        0.00000
